Version 4
SHEET 1 880 680
WIRE 176 112 64 112
WIRE 272 112 176 112
WIRE 176 192 64 192
WIRE 272 192 176 192
WIRE 176 224 176 192
FLAG 176 224 0
SYMBOL voltage 64 96 R0
WINDOW 3 28 -31 Left 2
WINDOW 123 0 0 Left 0
WINDOW 39 0 0 Left 0
SYMATTR InstName V1
SYMATTR Value PULSE(0 5 0 0 0 100m 200m)
SYMBOL res 160 96 R0
SYMATTR InstName R1
SYMATTR Value 1
SYMBOL res 256 96 R0
SYMATTR InstName R2
SYMATTR Value 1
TEXT 50 236 Left 2 !.tran 1
