Version 4
SHEET 1 880 680
WIRE 208 112 16 112
WIRE 304 112 208 112
WIRE 208 192 16 192
WIRE 304 192 208 192
WIRE 208 240 208 192
FLAG 208 240 0
SYMBOL voltage 16 96 R0
WINDOW 3 -15 -18 Left 2
WINDOW 123 0 0 Left 0
WINDOW 39 0 0 Left 0
SYMATTR InstName V1
SYMATTR Value PULSE(0 5 0 0 0 100m 200m)
SYMBOL res 192 96 R0
SYMATTR InstName R1
SYMATTR Value 1
SYMBOL res 288 96 R0
SYMATTR InstName R2
SYMATTR Value 1
TEXT 16 240 Left 2 !.tran 1
