Version 4
SHEET 1 880 680
WIRE 416 -32 224 -32
WIRE 656 -32 496 -32
WIRE 112 80 -16 80
WIRE 288 80 192 80
WIRE 496 80 368 80
WIRE 656 96 656 -32
WIRE -16 144 -16 80
WIRE 224 144 224 -32
WIRE 496 144 496 80
WIRE -16 288 -16 224
WIRE 112 288 -16 288
WIRE 224 288 224 224
WIRE 224 288 192 288
WIRE 256 288 224 288
WIRE 288 288 256 288
WIRE 496 288 496 224
WIRE 496 288 368 288
WIRE 656 288 656 176
WIRE 656 288 496 288
WIRE 256 336 256 288
FLAG 256 336 0
SYMBOL voltage -16 128 R0
SYMATTR InstName V1
SYMATTR Value 12v
SYMBOL voltage 656 80 R0
SYMATTR InstName V2
SYMATTR Value 14v
SYMBOL res 208 64 R90
WINDOW 0 0 56 VBottom 2
WINDOW 3 32 56 VTop 2
SYMATTR InstName R1
SYMATTR Value 2.2k
SYMBOL res 96 304 R270
WINDOW 0 32 56 VTop 2
WINDOW 3 0 56 VBottom 2
SYMATTR InstName R3
SYMATTR Value 1k
SYMBOL res 272 96 R270
WINDOW 0 32 56 VTop 2
WINDOW 3 0 56 VBottom 2
SYMATTR InstName R4
SYMATTR Value 4.7k
SYMBOL res 480 128 R0
SYMATTR InstName R5
SYMATTR Value 6.8k
SYMBOL res 384 272 R90
WINDOW 0 0 56 VBottom 2
WINDOW 3 32 56 VTop 2
SYMATTR InstName R6
SYMATTR Value 1.5k
SYMBOL res 512 -48 R90
WINDOW 0 0 56 VBottom 2
WINDOW 3 32 56 VTop 2
SYMATTR InstName R7
SYMATTR Value 4.7k
SYMBOL res 208 128 R0
SYMATTR InstName R2
SYMATTR Value 1.5k
TEXT 48 352 Left 2 !.op
