Version 4
SHEET 1 880 680
WIRE 304 64 16 64
WIRE 16 112 16 64
WIRE 304 112 304 64
WIRE 304 112 176 112
WIRE 400 112 304 112
WIRE 176 208 176 192
WIRE 288 208 176 208
WIRE 400 208 400 192
WIRE 16 240 16 192
WIRE 176 240 176 208
WIRE 400 240 400 208
WIRE 288 288 288 208
WIRE 288 288 240 288
WIRE 336 288 288 288
WIRE 176 416 176 336
WIRE 288 416 176 416
WIRE 400 416 400 336
WIRE 400 416 288 416
WIRE 288 448 288 416
FLAG 16 240 0
FLAG 288 448 0
FLAG 288 288 v1
IOPIN 288 288 Out
FLAG 400 208 v2
IOPIN 400 208 Out
SYMBOL voltage 16 96 R0
SYMATTR InstName V1
SYMATTR Value 5
SYMBOL npn 240 240 M0
SYMATTR InstName Q1
SYMATTR Value BC847C
SYMBOL npn 336 240 R0
SYMATTR InstName Q2
SYMATTR Value BC847C
SYMBOL res 160 96 R0
SYMATTR InstName R1
SYMATTR Value 1k
SYMBOL res 384 96 R0
SYMATTR InstName R2
SYMATTR Value 1k
TEXT 144 24 Left 2 ;DC analysis
TEXT 88 344 Left 2 !.op
